/*--------------------------------*- C++ -*----------------------------------*\ 
|             BlockMeshDict generated by hexBlocker                           | 
\*---------------------------------------------------------------------------*/ 
FoamFile 
{
	 version 	 2.0;
	 format 	 ascii;
	 class 		 dictionary; 
	 object 	 blockMeshDict; 
}
convertToMeters 1;

vertices
(
	(0 0 0) //0
	(1 0 0) //1
	(1 0.1 0) //2
	(0 0.1 0) //3
	(0 0 0.01) //4
	(1 0 0.01) //5
	(1 0.1 0.01) //6
	(0 0.1 0.01) //7

);

blocks
(
	 hex (0 1 2 3 4 5 6 7) (50 5 1) simpleGrading (1 1 1)

);

boundary
(
	inlet
	{
		type	patch;
		faces	
		(
			(0 4 7 3)
		);
	}
	outlet
	{
		type	patch;
		faces	
		(
			(1 2 6 5)
		);
	}
	walls
	{
		type	wall;
		faces	
		(
			(3 7 6 2)
			(0 1 5 4)
		);
	}
	frontAndRear
	{
		type	empty;
		faces	
		(
			(4 5 6 7)
			(0 3 2 1)
		);
	}
);

edges
(
);
