/*--------------------------------*- C++ -*----------------------------------*\
| =========                 |                                                 |
| \\      /  F ield         | OpenFOAM: The Open Source CFD Toolbox           |
|  \\    /   O peration     | Version:  2.1.x                                 |
|   \\  /    A nd           | Web:      www.OpenFOAM.org                      |
|    \\/     M anipulation  |                                                 |
\*---------------------------------------------------------------------------*/
FoamFile
{
    version     2.0;
    format      ascii;
    class       dictionary;
    object      blockMeshDict;
}
// * * * * * * * * * * * * * * * * * * * * * * * * * * * * * * * * * * * * * //

convertToMeters 1;

vertices
(
    (-1 0 0)
    (-0.5 0 0)
    (0 0 0)
    (1 0 0)
    (1 1 0)
    (0 1 0)
    (-0.5 1 0)
    (-1 1 0)
    (-1 0 0.1)
    (-0.5 0 0.1)
    (0 0 0.1)
    (1 0 0.1)
    (1 1 0.1)
    (0 1 0.1)
    (-0.5 1 0.1)
    (-1 1 0.1)
);

blocks
(
    hex (0 1 6 7 8 9 14 15)   (10 20 1) simpleGrading (1 1 1)
    hex (1 2 5 6 9 10 13 14)  (10 20 1) simpleGrading (1 1 1)
    hex (2 3 4 5 10 11 12 13) (20 20 1) simpleGrading (1 1 1)
);

edges
(
);

boundary
(
    inlet1
    {
        type inlet;
        faces
        (
            (0 8 9 1)
        );
    }
   inlet2
    {
        type inlet;
        faces
        (
            (1 9 10 2)
        );
    }
    outlet
    {
        type outlet;
        faces
        (
            (2 10 11 3)
        );
    }
    frontAndBack
    {
        type empty;
        faces
        (
            (0 1 6 7)
            (1 2 5 6)
            (2 3 4 5)
            (8 15 14 9)
            (9 14 13 10)
            (10 13 12 11)
        );
    }
);

mergePatchPairs
(
);

// ************************************************************************* //
